LTspice 24.0.12 for Windows
Circuit: * G:\Other computers\My Computer\Coursework\PEE1\labs\lab3\Draft1.asc
Start Time: Mon Nov 18 09:21:00 2024
solver = Normal
Maximum thread count: 16
tnom = 27
temp = 27
method = modified trap
Direct Newton iteration for .op point succeeded.
Total elapsed time: 0.286 seconds.

