LTspice 24.0.12 for Windows
Circuit: * G:\Other computers\My Computer\Coursework\PEE1 LAB\LTSPICE\Draft5.asc
Start Time: Mon Sep 23 21:16:16 2024
solver = Normal
Maximum thread count: 16
tnom = 27
temp = 27
method = modified trap
Direct Newton iteration for .op point succeeded.
Total elapsed time: 0.444 seconds.

