LTspice 24.0.12 for Windows
Circuit: * G:\Other computers\My Computer\Coursework\PEE1 LAB\LTSPICE\Draft2.asc
Start Time: Wed Oct 16 21:45:23 2024
solver = Normal
Maximum thread count: 16
tnom = 27
temp = 27
method = modified trap
Direct Newton iteration for .op point succeeded.
Total elapsed time: 0.405 seconds.

