LTspice 24.0.12 for Windows
Circuit: * G:\Other computers\My Computer\Coursework\PEE1 LAB\LTSPICE\lab1.asc
Start Time: Mon Sep  9 16:05:47 2024
solver = Normal
Maximum thread count: 16
tnom = 27
temp = 27
method = modified trap
Direct Newton iteration for .op point succeeded.
Total elapsed time: 0.364 seconds.

