LTspice 24.0.12 for Windows
Circuit: * G:\Other computers\My Computer\Coursework\PEE1\lab2\prelab circuit.asc
Start Time: Mon Oct 21 00:02:56 2024
solver = Normal
Maximum thread count: 16
tnom = 27
temp = 27
method = modified trap
Direct Newton iteration for .op point succeeded.
Total elapsed time: 0.131 seconds.

